contingency/no_load/20pc/TNB_DUMA_VLN.Txt

SYMMETRICAL COMPONENT VOLTAGES BY BUS (for 3-phase buses)

Bus               Mag:   V1 (kV)    p.u.     V2 (kV)   %V2/V1    V0 (kV)    %V0/V1

ppu_duma_33kv        19.09      1.002  9.311E-009  4.878E-008 1.239E-009 6.493E-009
ppu_duma_11kv        6.338     0.9981  3.288E-009  5.188E-008 5.147E-011 8.12E-010
rpplngi2             6.372      1.003  3.303E-009  5.184E-008 5.204E-011 8.168E-010
pdtjlnmasjid         6.396      1.007  3.314E-009  5.182E-008 5.255E-011 8.216E-010
bella                6.413       1.01  3.322E-009  5.18E-008 5.293E-011 8.253E-010
pstpdgn              6.421      1.011  3.326E-009  5.179E-008 5.313E-011 8.273E-010
pamdra               6.342     0.9986  3.29E-009  5.187E-008 5.152E-011 8.123E-010
duma4                6.353          1  3.295E-009  5.186E-008 5.33E-011 8.389E-010
plsdra               6.378      1.004  3.306E-009  5.184E-008 6.144E-011 9.633E-010
ssu_uptwres_ir1      6.382      1.005  3.308E-009  5.183E-008 6.165E-011 9.659E-010
atria_1              6.383      1.005  3.308E-009  5.183E-008 5.227E-011 8.189E-010
hawker               6.391      1.006  3.312E-009  5.182E-008 5.927E-011 9.274E-010
prmte                6.369      1.003  3.302E-009  5.185E-008 5.903E-011 9.268E-010
prmta                6.374      1.004  3.304E-009  5.184E-008 5.926E-011 9.297E-010
pmontb               6.377      1.004  3.306E-009  5.184E-008 6.084E-011 9.54E-010
duma7                6.351          1  3.294E-009  5.187E-008 5.165E-011 8.133E-010
haus                 6.376      1.004  3.305E-009  5.185E-008 5.576E-011 8.746E-010
duma6                6.443      1.015  3.338E-009  5.18E-008 8.524E-011 1.323E-009
duma13               6.505      1.024  3.367E-009  5.176E-008 1.204E-010 1.852E-009
ssu_duma5_im2        6.513      1.026  3.371E-009  5.176E-008 1.209E-010 1.857E-009
plngi_b              6.355      1.001  3.296E-009  5.186E-008 5.173E-011 8.14E-010
plngi_d              6.364      1.002  3.299E-009  5.185E-008 5.187E-011 8.151E-010
pdtlitrak             6.42      1.011  3.325E-009  5.18E-008 5.317E-011 8.282E-010
duma12               6.453      1.016  3.34E-009  5.177E-008 5.403E-011 8.373E-010
tmngh4               6.484      1.021  3.354E-009  5.174E-008 6.392E-011 9.859E-010
ssu_tmegah3_ir1      6.496      1.023  3.36E-009  5.173E-008 6.976E-011 1.074E-009
tmngh2               6.501      1.024  3.363E-009  5.172E-008 7.252E-011 1.115E-009
sprk9                6.413       1.01  3.322E-009  5.18E-008 5.293E-011 8.253E-010
bomba                6.417       1.01  3.324E-009  5.18E-008 5.357E-011 8.348E-010
sprk8                6.427      1.012  3.328E-009  5.179E-008 5.598E-011 8.71E-010
ssu_uptwres_im2      6.351          1  3.294E-009  5.186E-008 5.322E-011 8.379E-010
maybank              6.368      1.003  3.301E-009  5.185E-008 5.373E-011 8.437E-010
duma8                6.371      1.003  3.303E-009  5.184E-008 5.446E-011 8.548E-010
ssu_dsarcntr_ir1     6.347     0.9994  3.292E-009  5.187E-008 5.159E-011 8.129E-010
duma9                6.395      1.007  3.314E-009  5.182E-008 5.254E-011 8.216E-010
duma1                6.419      1.011  3.324E-009  5.179E-008 5.308E-011 8.269E-010
elite                6.427      1.012  3.328E-009  5.178E-008 5.328E-011 8.29E-010
duma10               6.379      1.004  3.306E-009  5.183E-008 5.216E-011 8.177E-010
balaipolis           6.379      1.004  3.306E-009  5.183E-008 5.217E-011 8.178E-010
ppu_duma_vcb1            0          0          0          0         0         0
